#======================================================================

# CRYSTAL DATA

#----------------------------------------------------------------------

data_VESTA_phase_1


_pd_phase_name                         'New structure'
_cell_length_a                         5.60000
_cell_length_b                         5.60000
_cell_length_c                         5.60000
_cell_angle_alpha                      60.00000
_cell_angle_beta                       60.00000
_cell_angle_gamma                      60.00000
_symmetry_space_group_name_H-M         'R 3 c'
_symmetry_Int_Tables_number            161

loop_
_symmetry_equiv_pos_as_xyz
   'x, y, z'
   'z, x, y'
   'y, z, x'
   'y+1/2, x+1/2, z+1/2'
   'x+1/2, z+1/2, y+1/2'
   'z+1/2, y+1/2, x+1/2'

loop_
   _atom_site_label
   _atom_site_occupancy
   _atom_site_fract_x
   _atom_site_fract_y
   _atom_site_fract_z
   _atom_site_adp_type
   _atom_site_B_iso_or_equiv
   _atom_site_type_symbol
   Bi       1.0    0            0            0           Biso  1.000000  Bi
   Fe       1.0    0.250000      0.250000      0.250000     Biso  1.000000  Fe
   O        1.0    0            0.500000      0.500000     Biso  1.000000  O
